  Jan's pancakes                	  17.2	   4.7	   3.7	 127.1 CHO%54.3
    125g flour                    	  95.0 	   1.2 	  12.5 	 455.0 CHO%83.5
    2T agave nectar               	  30.0 	   0.0 	   0.0 	 120.0 CHO%100.0
    0.25C soy flour               	   8.0 	   6.0 	  10.0 	 120.0 CHO%26.7
    1C unsweetened soy milk       	   4.0 	   4.0 	   7.0 	  70.0 CHO%22.9
    1tsp vanilla extract          	   1.0 	   0.0 	   0.0 	  12.0 CHO%33.3
    0.5T salt                     	   0.0 	   0.0 	   0.0 	   0.0 CHO%0.0
    2T olive oil                  	   0.0 	  26.0 	   0.0 	 240.0 CHO%0.0
